Version 4.1
SHEET 1 1392 680
WIRE 224 128 96 128
WIRE 448 128 304 128
WIRE 1168 128 1024 128
WIRE 1376 128 1248 128
WIRE 688 208 640 208
WIRE 832 208 784 208
WIRE 448 224 448 208
WIRE 560 224 560 208
WIRE 560 224 448 224
WIRE 912 224 912 208
WIRE 1024 224 1024 208
WIRE 1024 224 912 224
WIRE 96 256 96 208
WIRE 688 256 688 208
WIRE 688 256 96 256
WIRE 784 256 784 208
WIRE 1376 256 1376 208
WIRE 1376 256 784 256
SYMBOL res 80 112 R0
SYMATTR InstName R1
SYMATTR Value 100
SYMBOL res 320 112 R90
WINDOW 0 3 56 VBottom 2
WINDOW 3 27 56 VTop 2
SYMATTR InstName R2
SYMATTR Value 200
SYMBOL res 464 224 R180
WINDOW 0 36 76 Left 2
WINDOW 3 36 40 Left 2
SYMATTR InstName R3
SYMATTR Value 300
SYMBOL res 1392 112 M0
SYMATTR InstName R5
SYMATTR Value 100
SYMBOL res 1152 112 M90
WINDOW 0 3 56 VBottom 2
WINDOW 3 27 56 VTop 2
SYMATTR InstName R6
SYMATTR Value 200
SYMBOL res 1008 224 M180
WINDOW 0 36 76 Left 2
WINDOW 3 36 40 Left 2
SYMATTR InstName R7
SYMATTR Value 300
SYMBOL res 928 224 M270
WINDOW 0 27 56 VTop 2
WINDOW 3 3 56 VBottom 2
SYMATTR InstName R8
SYMATTR Value 400
SYMBOL res 544 224 R270
WINDOW 0 27 56 VTop 2
WINDOW 3 3 56 VBottom 2
SYMATTR InstName R4
SYMATTR Value 400
