Version 4.1
SHEET 1 1396 2016
SYMBOL Misc\\signal 96 1856 R0
SYMATTR InstName V17
