Version 4.1
SHEET 1 1876 3832
SYMBOL e -64 1056 R0
SYMATTR InstName E1
SYMATTR Value 100
SYMBOL e 224 1104 R90
SYMATTR InstName E2
SYMATTR Value 100
