Version 4.1
SHEET 1 1780 2312
LINE Normal -512 176 -944 544 2
LINE Normal 320 688 -448 352 2
LINE Normal 800 160 352 464 2
LINE Normal -128 768 -624 1008
CIRCLE Normal 1168 1632 800 976
CIRCLE Normal 464 1184 -240 1584 1
ARC Normal -640 2240 48 1824 -1027 1700 373 2014 1
