Version 4.1
SHEET 1 1780 2312
SYMBOL TCLib\\Special\\arrow_curve -656 1408 R180
WINDOW 3 77 56 Left 2
SYMATTR Value V2
SYMATTR InstName X2
SYMBOL TCLib\\Special\\Gain_Block -384 1296 R0
SYMATTR InstName U1
