Version 4.1
SHEET 1 1780 2312
WIRE -528 1184 -672 1184
WIRE -320 1184 -448 1184
WIRE -224 1184 -288 1184
WIRE -528 1312 -608 1312
WIRE -672 1344 -672 1184
WIRE -608 1344 -608 1312
WIRE -608 1344 -672 1344
WIRE -368 1344 -416 1344
WIRE -224 1344 -224 1184
WIRE -224 1344 -272 1344
WIRE -608 1376 -608 1344
WIRE -528 1376 -608 1376
WIRE 0 1424 -80 1424
WIRE -352 1440 -400 1440
WIRE -352 1472 -352 1440
WIRE 0 1472 0 1424
WIRE -560 1504 -608 1504
WIRE -400 1504 -400 1440
WIRE -400 1504 -496 1504
WIRE -192 1504 -240 1504
WIRE -80 1504 -80 1424
WIRE -80 1504 -128 1504
WIRE -688 1552 -688 1504
WIRE -608 1552 -608 1504
WIRE -608 1552 -688 1552
WIRE -352 1584 -352 1536
WIRE -240 1584 -240 1504
WIRE -240 1584 -352 1584
WIRE -352 1600 -352 1584
WIRE -608 1632 -608 1552
WIRE -448 1632 -608 1632
WIRE 0 1632 0 1536
WIRE 0 1632 -448 1632
WIRE -736 1712 -816 1680
WIRE -656 1712 -736 1712
WIRE -448 1728 -448 1632
WIRE -448 1728 -560 1728
WIRE -752 1808 -656 1744
WIRE -864 1824 -816 1680
WIRE -864 1824 -752 1808
FLAG -688 1504 0
FLAG -352 1600 0
SYMBOL TCLib\\OA_Ideal -336 1296 R0
SYMATTR InstName U1
SYMBOL res -432 1168 R90
WINDOW 0 3 56 VBottom 2
WINDOW 3 27 56 VTop 2
SYMATTR InstName R1
SYMBOL TCLib\\Special\\arrow -240 1296 R270
SYMATTR Value I5
SYMATTR InstName X1
SYMBOL TCLib\\Special\\bypass -320 1184 R0
SYMATTR InstName U2
SYMBOL TCLib\\Special\\arrow_curve -656 1408 R180
SYMATTR Value V2
SYMATTR InstName X2
SYMBOL TCLib\\Special\\Gain_Block -192 1296 R0
SYMATTR InstName U3
SYMATTR Value K = 11
SYMBOL TCLib\\Special\\fdnr -528 1504 R90
WINDOW 38 37 0 VTop 2
WINDOW 3 16 0 VTop 2
SYMATTR InstName U4
SYMBOL TCLib\\Special\\fdnr -352 1504 R180
WINDOW 38 0 -42 Invisible 2
WINDOW 3 0 -21 Invisible 2
SYMATTR InstName U5
SYMBOL TCLib\\Special\\fdnr -160 1504 R270
WINDOW 38 -37 0 VBottom 2
WINDOW 3 -16 0 VBottom 2
SYMATTR InstName U6
SYMBOL TCLib\\Special\\fdnr 0 1504 R0
SYMATTR InstName U7
SYMBOL TCLib\\Special\\Characters\\B_Esponja -1440 1040 R0
SYMATTR InstName X3
SYMBOL TCLib\\Special\\Black_Box -464 1680 R0
SYMATTR InstName U8
