Version 4.1
SHEET 1 1540 1344
WIRE -544 208 -544 192
WIRE -192 208 -544 208
WIRE -16 208 -192 208
WIRE 64 208 -16 208
WIRE 208 208 64 208
WIRE 704 208 208 208
WIRE 816 208 704 208
WIRE 864 208 816 208
WIRE 1136 208 960 208
WIRE 1424 208 1136 208
WIRE 816 384 816 208
WIRE 64 448 64 208
WIRE -16 480 -16 208
WIRE 16 480 -16 480
WIRE 816 512 816 464
WIRE 944 512 944 256
WIRE 944 512 816 512
WIRE 1136 576 1136 208
WIRE -544 624 -544 208
WIRE 1216 624 1184 624
WIRE -576 656 -544 624
WIRE -512 656 -544 624
WIRE 448 656 448 640
WIRE 704 656 704 208
WIRE 944 656 944 512
WIRE 64 672 64 544
WIRE 192 672 64 672
WIRE 400 672 224 672
WIRE 576 704 512 704
WIRE 640 704 576 704
WIRE 1136 704 1136 656
WIRE 1136 704 1008 704
WIRE 1216 704 1216 624
WIRE 1216 704 1136 704
WIRE 1424 720 1424 208
WIRE -864 736 -1040 736
WIRE -656 736 -624 704
WIRE -656 736 -784 736
WIRE -432 736 -464 704
WIRE -320 736 -432 736
WIRE -192 736 -192 208
WIRE 400 736 352 736
WIRE 208 752 208 208
WIRE -624 768 -656 736
WIRE -464 768 -432 736
WIRE 448 768 448 752
WIRE -1040 784 -1040 736
WIRE -864 784 -864 736
WIRE -784 784 -784 736
WIRE 704 784 704 752
WIRE 816 784 704 784
WIRE 944 784 944 752
WIRE 944 784 816 784
WIRE -544 848 -576 816
WIRE -544 848 -512 816
WIRE 208 880 208 832
WIRE 352 880 352 736
WIRE 352 880 208 880
WIRE 400 880 352 880
WIRE 576 880 576 704
WIRE 576 880 480 880
WIRE -544 896 -544 848
WIRE -784 912 -784 864
WIRE -320 912 -320 736
WIRE -320 912 -784 912
WIRE -1040 928 -1040 864
WIRE -864 928 -864 864
WIRE 816 1008 816 784
WIRE 1136 1008 1136 704
WIRE 64 1024 64 672
WIRE 208 1024 208 880
WIRE -704 1040 -880 1040
WIRE -880 1120 -880 1040
WIRE -704 1120 -704 1040
WIRE -880 1248 -880 1200
WIRE -704 1248 -704 1184
WIRE -704 1248 -880 1248
WIRE -544 1248 -544 928
WIRE -192 1248 -192 800
WIRE -192 1248 -544 1248
WIRE 64 1248 64 1088
WIRE 64 1248 -192 1248
WIRE 208 1248 208 1104
WIRE 208 1248 64 1248
WIRE 816 1248 816 1088
WIRE 816 1248 208 1248
WIRE 1136 1248 1136 1088
WIRE 1136 1248 816 1248
WIRE 1424 1248 1424 800
WIRE 1424 1248 1136 1248
WIRE -544 1264 -544 1248
FLAG -1040 928 0
FLAG -864 928 0
FLAG -544 192 +V
FLAG -544 1264 -V
FLAG 448 768 +V
FLAG 448 640 -V
SYMBOL Misc\\signal -1040 768 M0
SYMATTR InstName V1
SYMBOL TCLib\\Special\\diode_45 -576 704 R180
SYMATTR InstName D1
SYMBOL TCLib\\Special\\diode_45 -512 704 M180
SYMATTR InstName D2
SYMBOL TCLib\\Special\\diode_45 -576 768 M0
SYMATTR InstName D3
SYMBOL TCLib\\Special\\diode_45 -512 768 R0
SYMATTR InstName D4
SYMBOL ind -880 768 R0
SYMATTR InstName L1
SYMBOL ind -768 768 M0
SYMATTR InstName L2
SYMBOL TCLib\\Special\\bypass -544 928 R270
SYMATTR InstName U1
SYMBOL cap -208 736 R0
SYMATTR InstName C1
SYMATTR Value 100µ
SYMBOL nmos 864 256 R270
SYMATTR InstName M1
SYMBOL pjf 16 544 M180
SYMATTR InstName J1
SYMBOL zener 80 1088 R180
WINDOW 0 24 64 Left 2
WINDOW 3 24 0 Left 2
SYMATTR InstName D5
SYMBOL npn 640 656 R0
SYMATTR InstName Q1
SYMBOL npn 1008 656 M0
SYMATTR InstName Q2
SYMBOL res 800 992 R0
SYMATTR InstName R1
SYMATTR Value 100
SYMBOL TCLib\\pot 1120 560 R0
SYMATTR InstName U2
SYMBOL TCLib\\Special\\arrow_curve 1408 704 R0
SYMATTR Value Vo
SYMATTR InstName X1
SYMBOL TCLib\\Special\\node 1408 704 R0
SYMATTR InstName X2
SYMBOL TCLib\\Special\\node 1408 784 R0
SYMATTR InstName X3
SYMBOL res 1120 992 R0
SYMATTR InstName R2
SYMATTR Value 10k
SYMBOL res 800 368 R0
SYMATTR InstName R3
SYMBOL TCLib\\Special\\Characters\\G_Gil -1088 80 R0
SYMATTR InstName X4
SYMBOL TCLib\\TL082 592 752 M180
SYMATTR InstName U3
SYMBOL res 496 864 R90
WINDOW 0 3 56 VBottom 2
WINDOW 3 27 56 VTop 2
SYMATTR InstName R4
SYMATTR Value 10k
SYMBOL res 192 736 R0
SYMATTR InstName R5
SYMATTR Value 10k
SYMBOL res 192 1008 R0
SYMATTR InstName R6
SYMATTR Value 10k
SYMBOL TCLib\\Special\\bypass 192 672 R0
SYMATTR InstName U4
SYMBOL Misc\\battery -880 1104 R0
SYMATTR InstName V2
SYMBOL Misc\\DIAC -736 1120 R0
SYMATTR InstName U5
TEXT -392 72 Left 7 ;BOKE
RECTANGLE Normal 1536 1328 -1216 -48 2
