Version 4.1
SHEET 1 1076 1092
WIRE -192 208 -544 208
WIRE -16 208 -192 208
WIRE 64 208 -16 208
WIRE 240 208 64 208
WIRE 352 208 240 208
WIRE 400 208 352 208
WIRE 672 208 496 208
WIRE 960 208 672 208
WIRE 352 384 352 208
WIRE 64 448 64 208
WIRE -16 480 -16 208
WIRE 16 480 -16 480
WIRE 352 512 352 464
WIRE 480 512 480 256
WIRE 480 512 352 512
WIRE 672 576 672 208
WIRE -544 624 -544 208
WIRE 752 624 720 624
WIRE -576 656 -544 624
WIRE -512 656 -544 624
WIRE 240 656 240 208
WIRE 480 656 480 512
WIRE 64 704 64 544
WIRE 176 704 64 704
WIRE 672 704 672 656
WIRE 672 704 544 704
WIRE 752 704 752 624
WIRE 752 704 672 704
WIRE 960 720 960 208
WIRE -864 736 -1040 736
WIRE -656 736 -624 704
WIRE -656 736 -784 736
WIRE -432 736 -464 704
WIRE -320 736 -432 736
WIRE -192 736 -192 208
WIRE -624 768 -656 736
WIRE -464 768 -432 736
WIRE -1040 784 -1040 736
WIRE -864 784 -864 736
WIRE -784 784 -784 736
WIRE 240 784 240 752
WIRE 352 784 240 784
WIRE 480 784 480 752
WIRE 480 784 352 784
WIRE -544 848 -576 816
WIRE -544 848 -512 816
WIRE -544 896 -544 848
WIRE -784 912 -784 864
WIRE -320 912 -320 736
WIRE -320 912 -784 912
WIRE 352 912 352 784
WIRE 672 912 672 704
WIRE -1040 928 -1040 864
WIRE -864 928 -864 864
WIRE 64 928 64 704
WIRE -544 1040 -544 928
WIRE -192 1040 -192 800
WIRE -192 1040 -544 1040
WIRE 64 1040 64 992
WIRE 64 1040 -192 1040
WIRE 352 1040 352 992
WIRE 352 1040 64 1040
WIRE 672 1040 672 992
WIRE 672 1040 352 1040
WIRE 960 1040 960 800
WIRE 960 1040 672 1040
FLAG -1040 928 0
FLAG -864 928 0
SYMBOL Misc\\signal -1040 768 M0
SYMATTR InstName V1
SYMBOL TCLib\\Special\\diode_45 -576 704 R180
SYMATTR InstName D1
SYMBOL TCLib\\Special\\diode_45 -512 704 M180
SYMATTR InstName D2
SYMBOL TCLib\\Special\\diode_45 -576 768 M0
SYMATTR InstName D3
SYMBOL TCLib\\Special\\diode_45 -512 768 R0
SYMATTR InstName D4
SYMBOL ind -880 768 R0
SYMATTR InstName L1
SYMBOL ind -768 768 M0
SYMATTR InstName L2
SYMBOL TCLib\\Special\\bypass -544 928 R270
SYMATTR InstName U1
SYMBOL cap -208 736 R0
SYMATTR InstName C1
SYMATTR Value 100µ
SYMBOL nmos 400 256 R270
SYMATTR InstName M1
SYMBOL pjf 16 544 M180
SYMATTR InstName J1
SYMBOL zener 80 992 R180
WINDOW 0 24 64 Left 2
WINDOW 3 24 0 Left 2
SYMATTR InstName D5
SYMBOL npn 176 656 R0
SYMATTR InstName Q1
SYMBOL npn 544 656 M0
SYMATTR InstName Q2
SYMBOL res 336 896 R0
SYMATTR InstName R1
SYMATTR Value 100
SYMBOL TCLib\\pot 656 560 R0
SYMATTR InstName U2
SYMBOL TCLib\\Special\\arrow_curve 944 704 R0
SYMATTR Value Vo
SYMATTR InstName X1
SYMBOL TCLib\\Special\\node 944 704 R0
SYMATTR InstName X2
SYMBOL TCLib\\Special\\node 944 784 R0
SYMATTR InstName X3
SYMBOL res 656 896 R0
SYMATTR InstName R2
SYMATTR Value 10k
SYMBOL res 336 368 R0
SYMATTR InstName R3
SYMBOL TCLib\\Special\\Characters\\G_Gil -1088 80 R0
SYMATTR InstName X4
RECTANGLE Normal 1072 1088 -1216 -48 2
