Version 4.1
SHEET 1 880 680
WIRE -480 384 -576 352
WIRE -464 432 -480 384
WIRE -672 448 -576 352
WIRE -720 544 -720 496
WIRE -464 544 -464 512
WIRE -464 544 -720 544
SYMBOL TCLib\\Special\\diode_45 -720 448 R0
SYMATTR InstName D1
SYMBOL bi -464 432 R0
SYMATTR InstName B1
