Version 4.1
SHEET 1 880 680
WIRE -640 560 -640 480
WIRE -464 560 -464 480
WIRE -464 560 -640 560
FLAG -464 480 +V
SYMBOL TCLib\\Special\\node -656 464 R0
SYMATTR InstName X1
