Version 4.1
SHEET 1 880 680
SYMBOL cap -640 448 R0
SYMATTR InstName C1
SYMATTR Value 1Á
