Version 4.1
SHEET 1 880 1176
SYMBOL TCLib\\Special\\Gain_Block -1264 544 R0
SYMATTR InstName U1
SYMATTR Value K=1000
SYMBOL TCLib\\Special\\Gain_Block -1152 720 R90
WINDOW 3 -153 -10 Left 1
SYMATTR InstName U2
SYMATTR Value K=11
SYMBOL TCLib\\Special\\Gain_Block -1040 640 R180
WINDOW 3 -117 -11 Left 1
SYMATTR InstName U3
SYMBOL TCLib\\Special\\Gain_Block -720 464 R270
WINDOW 3 -193 97 Left 1
SYMATTR InstName U4
SYMBOL TCLib\\Special\\Gain_Block -816 784 M0
SYMATTR InstName U5
SYMBOL TCLib\\Special\\Gain_Block -928 960 M90
SYMATTR InstName U6
SYMBOL TCLib\\Special\\Gain_Block -1040 880 M180
SYMATTR InstName U7
SYMBOL TCLib\\Special\\Gain_Block -1360 704 M270
SYMATTR InstName U8
