Version 4.1
SHEET 1 880 1424
WIRE -304 704 -400 704
WIRE -1072 736 -1232 736
WIRE -896 736 -928 736
WIRE -784 736 -816 736
WIRE -1232 768 -1232 736
WIRE -512 768 -512 736
WIRE -304 768 -304 704
WIRE -304 768 -320 768
WIRE -256 768 -304 768
WIRE -608 784 -608 736
WIRE -608 784 -672 784
WIRE -608 800 -608 784
WIRE -560 800 -608 800
WIRE -1136 816 -1184 816
WIRE -320 816 -320 768
WIRE -1136 832 -1136 816
WIRE -1072 832 -1072 736
WIRE -1072 832 -1136 832
WIRE -880 832 -928 832
WIRE -864 832 -864 784
WIRE -864 832 -880 832
WIRE -400 864 -400 704
WIRE -368 864 -400 864
WIRE -256 864 -288 864
WIRE -1232 880 -1232 848
WIRE -1136 880 -1136 832
WIRE -672 880 -672 784
WIRE -512 880 -512 848
WIRE -512 880 -672 880
WIRE -880 896 -880 832
WIRE -784 896 -784 736
WIRE -784 896 -880 896
FLAG -1232 880 0
FLAG -1136 880 0
FLAG -928 736 0
FLAG -928 832 0
FLAG -512 736 0
FLAG -608 736 0
FLAG -256 864 0
FLAG -256 768 0
SYMBOL TCLib\\pot -1248 752 R0
SYMATTR InstName U1
SYMBOL TCLib\\pot -800 720 R90
SYMATTR InstName U2
SYMBOL TCLib\\pot -496 864 R180
SYMATTR InstName U3
SYMBOL TCLib\\pot -384 880 R270
SYMATTR InstName U4
SYMBOL TCLib\\Special\\OA_Yiu -592 1088 R0
SYMATTR InstName U5
SYMBOL TCLib\\Special\\OA_Yiu -448 1248 R90
SYMATTR InstName U6
SYMBOL TCLib\\Special\\OA_Yiu -352 1168 R180
SYMATTR InstName U7
SYMBOL TCLib\\Special\\OA_Yiu -80 976 R270
SYMATTR InstName U8
SYMBOL TCLib\\Special\\OA_Yiu -208 1312 M0
SYMATTR InstName U9
SYMBOL TCLib\\Special\\OA_Yiu -352 1472 M90
SYMATTR InstName U10
SYMBOL TCLib\\Special\\OA_Yiu -448 1392 M180
SYMATTR InstName U11
SYMBOL TCLib\\Special\\OA_Yiu -720 1200 M270
SYMATTR InstName U12
