Version 4.1
SHEET 1 880 2200
WIRE -752 912 -688 832
WIRE -752 912 -752 880
WIRE -1360 1008 -1376 1008
WIRE -1296 1008 -1360 1008
WIRE -1216 1008 -1264 1008
WIRE -944 1008 -1024 944
WIRE -944 1008 -976 1008
WIRE -848 1008 -1024 944
WIRE -848 1008 -944 1008
WIRE -752 1008 -688 832
WIRE -752 1008 -752 912
WIRE -1376 1056 -1376 1008
WIRE -1360 1056 -1360 1008
WIRE -1360 1056 -1376 1056
WIRE -1296 1056 -1296 1008
WIRE -1296 1056 -1360 1056
WIRE -1264 1056 -1264 1008
WIRE -1264 1056 -1296 1056
WIRE -1216 1056 -1216 1008
WIRE -1136 1056 -1216 1056
WIRE -1040 1056 -1136 1056
WIRE -1168 1136 -1248 1136
WIRE -1008 1136 -1088 1136
WIRE -912 1136 -912 1104
WIRE -832 1136 -912 1136
WIRE -720 1136 -720 1104
WIRE -720 1136 -800 1136
WIRE -1168 1184 -1168 1136
WIRE -1088 1184 -1088 1136
WIRE -1008 1248 -1008 1216
WIRE -880 1248 -880 1216
WIRE -1216 1264 -1216 1248
WIRE -1216 1264 -1232 1264
WIRE -1216 1280 -1216 1264
WIRE -1008 1312 -1008 1248
WIRE -880 1312 -880 1248
WIRE -1232 1328 -1232 1312
WIRE -1216 1328 -1232 1328
WIRE -1136 1328 -1136 1312
WIRE -1136 1328 -1152 1328
WIRE -1120 1328 -1136 1328
WIRE -1232 1344 -1232 1328
WIRE -1184 1408 -1200 1408
WIRE -1168 1408 -1184 1408
WIRE -1184 1424 -1184 1408
WIRE -976 1552 -976 1504
WIRE -704 1568 -752 1568
WIRE -1216 1584 -1264 1584
WIRE -528 1616 -528 1568
FLAG -1136 1056 Vm
FLAG -1168 1136 Vm
FLAG -1088 1136 Vm
FLAG -912 1136 Vm
FLAG -720 1136 Vm
FLAG -848 1008 Vr
FLAG -1008 1248 Vm
FLAG -880 1248 Vm
FLAG -752 1008 Vg
FLAG -1216 1264 Vm
FLAG -1136 1328 Vm
FLAG -1232 1328 Vm
FLAG -1184 1408 Vm
SYMBOL TCLib\\Vcc -1232 1568 R0
SYMATTR InstName U2
SYMBOL TCLib\\Vcc -960 1536 R90
SYMATTR InstName U1
SYMBOL TCLib\\Vcc -736 1584 R180
SYMATTR InstName U3
SYMBOL TCLib\\Vcc -544 1584 R270
SYMATTR InstName U4
SYMBOL TCLib\\pot -1280 1776 R0
SYMATTR InstName U5
SYMBOL TCLib\\pot -944 1808 R90
SYMATTR InstName U6
SYMBOL TCLib\\pot -800 1856 R180
SYMATTR InstName U7
SYMBOL TCLib\\pot -672 1824 R270
SYMATTR InstName U8
SYMBOL TCLib\\pot -608 2048 M0
SYMATTR InstName U9
SYMBOL TCLib\\pot -944 2080 M90
SYMATTR InstName U10
SYMBOL TCLib\\pot -1088 2128 M180
SYMATTR InstName U11
SYMBOL TCLib\\pot -1216 2096 M270
SYMATTR InstName U12
