Version 4.1
SHEET 1 1476 852
WIRE 624 -208 256 -208
WIRE 832 -208 624 -208
WIRE 256 -112 256 -208
WIRE 624 -112 624 -208
WIRE 624 48 624 -32
WIRE 256 96 256 -32
WIRE 560 96 256 96
WIRE 256 224 256 96
WIRE 624 224 624 144
WIRE 256 368 256 304
WIRE 624 368 624 304
WIRE 1312 496 752 496
WIRE 1264 544 944 544
WIRE 1264 592 1264 544
WIRE 1312 592 1312 496
WIRE 368 640 192 640
WIRE 528 640 448 640
WIRE 656 640 528 640
WIRE 752 640 752 496
WIRE 752 640 656 640
WIRE 800 640 752 640
WIRE 944 640 944 544
WIRE 944 640 880 640
WIRE 992 640 944 640
WIRE 1248 640 1168 640
WIRE 1408 640 1328 640
WIRE 528 688 528 640
WIRE 656 688 656 640
WIRE 992 688 992 640
WIRE 1168 688 1168 640
WIRE 192 704 192 640
WIRE 1408 704 1408 640
WIRE 192 832 192 784
WIRE 528 832 528 768
WIRE 656 832 656 768
WIRE 992 832 992 768
WIRE 1168 832 1168 768
WIRE 1408 832 1408 784
FLAG 256 368 0
FLAG 624 368 0
FLAG 192 832 0
FLAG 992 832 0
FLAG 656 832 0
FLAG 528 832 0
FLAG 1168 832 0
FLAG 1408 832 0
SYMBOL res 240 -128 R0
SYMATTR InstName R1
SYMATTR Value 820k
SYMBOL res 240 208 R0
SYMATTR InstName R2
SYMATTR Value 680k
SYMBOL NPN_ideal 560 48 R0
SYMATTR Value hfe=200
SYMATTR InstName U1
SYMBOL res 608 208 R0
SYMATTR InstName R3
SYMATTR Value 2k
SYMBOL res 608 -128 R0
SYMATTR InstName R4
SYMATTR Value 5k
SYMBOL Vcc 816 -224 R0
SYMATTR Value V=10
SYMATTR InstName U2
SYMBOL voltage 192 688 R0
WINDOW 123 0 0 Left 0
WINDOW 39 0 0 Left 0
SYMATTR InstName V1
SYMATTR Value 1
SYMBOL res 464 624 R90
WINDOW 0 3 56 VBottom 2
WINDOW 3 27 56 VTop 2
SYMATTR InstName R5
SYMATTR Value 1k
SYMBOL res 512 672 R0
SYMATTR InstName R6
SYMATTR Value 820k
SYMBOL res 640 672 R0
SYMATTR InstName R7
SYMATTR Value 680k
SYMBOL res 896 624 R90
WINDOW 0 3 56 VBottom 2
WINDOW 3 27 56 VTop 2
SYMATTR InstName R8
SYMATTR Value 2726
SYMBOL res 976 672 R0
SYMATTR InstName R9
SYMATTR Value 2k
SYMBOL g 1232 640 M90
SYMATTR InstName G1
SYMATTR Value 0.0737
SYMBOL res 1152 672 R0
SYMATTR InstName R10
SYMATTR Value 2k
SYMBOL res 1392 688 R0
SYMATTR InstName R11
SYMATTR Value 5k
TEXT 816 264 Left 2 !.op
