Version 4.1
SHEET 1 1476 852
SYMBOL TCLib\\pot 336 496 R0
SYMATTR InstName U1
SYMBOL TCLib\\Vcc 512 512 R0
SYMATTR InstName U2
