Version 4.1
SHEET 1 2724 1988
SYMBOL TCLib\\CompRenderTest 352 816 R0
SYMATTR InstName X1
SYMBOL TCLib\\CompRenderTest\ -\ plus\ text 1936 1008 R0
SYMATTR InstName X2
TEXT 232 496 Left 2 ;ASC Text
TEXT 288 472 Center 0 ;ASC Text
LINE Normal 592 528 400 448 2
LINE Normal 576 432 592 528 2
LINE Normal 400 448 576 432 2
RECTANGLE Normal 720 592 512 448
RECTANGLE Normal 2720 1984 -80 272 2
