Version 4.1
SHEET 1 2724 1988
SYMBOL TCLib\\CompRenderTest\ Simple\ all\ verticals 288 640 R0
SYMATTR InstName X1
RECTANGLE Normal 720 1008 96 400 2
