Version 4.1
SHEET 1 880 680
TEXT 144 96 Bottom 2 ;Text on top
TEXT 144 192 Bottom 0 ;Small Text Inside
LINE Normal -32 112 64 112
LINE Normal -32 176 64 176 1
RECTANGLE Normal 224 192 64 96
CIRCLE Normal 416 240 352 112 2
